! Meteor Impact for 2.1.3 Setup for CAM4 physics
 ! Changes need for CAM4 physics
   bnd_topo = '/glade/work/crtabor/paleo_setup/paleo_toolkit_2020/cesm1_2/atm/70Ma_FV2/bnd_topo_MAA_FV2_remap.211118_sgh30.nc' 
   !ncdata = '/glade/p/cesmdata/cseg/inputdata/atm/waccm/ic/waccm3548_2x_t43.cam2.i.1870-01-01-00000.nc'
   !ncdata = '/glade/work/shixiongh/cases/cw4_tuv_cntrl/scripts_ncl/output.nc'
   ncdata = 'cw4_mi_cntrl.cam.i.0004-01-01-00000.nc' 

&chem_surfvals_nl
   flbc_cycle_yr     = 1850
   flbc_file       = '/glade/work/crtabor/paleo_setup/paleo_toolkit_2020/cesm1_2/atm/70Ma_FV2/cam4_aero/MAA_mozart/LBC_1765-2005_1.9x2.5_CMIP5_za_MAA.nc'
   flbc_list       = 'CCL4', 'CF2CLBR', 'CF3BR', 'CFC11', 'CFC113', 'CFC12', 'CH3BR', 'CH3CCL3', 'CH3CL', 'CH4', 'CO2',
     'H2', 'HCFC22', 'N2O'
   flbc_type       = 'CYCLICAL'
   co2vmr         =  0.000001e-6
   ch4vmr         = 2400.e-9
   f11vmr         = 0.0
   f12vmr         = 0.0
   n2ovmr         = 375.e-9
   !solar_const    = 1353.07  
   solar_irrad_data_file = '/glade/work/crtabor/paleo_setup/paleo_toolkit_2020/cesm1_2/atm/70Ma_FV2/cam4_aero/MAA_mozart/solar_scon_MAA.nc'        


ext_frc_specifier = ''
! 'SO4 -> /glade/work/crtabor/paleo_setup/cam4/bulk_aero_test/aerocom_SO4_vertical_MAA_2.c150519.nc'
!'SO2  -> /glade/work/crtabor/paleo_setup/cam4/bulk_aero_test/aerocom_SO2_vertical_MAA_2.c150519.nc'

tracer_cnst_datapath = '/glade/work/crtabor/paleo_setup/paleo_toolkit_2020/cesm1_2/atm/70Ma_FV2/cam4_aero'
tracer_cnst_file = 'oxid_1.9x2.5_L26_1850clim_19x25_MAA.nc'
tracer_cnst_cycle_yr = 1850
soil_erod_file = '/glade/work/crtabor/paleo_setup/paleo_toolkit_2020/cesm1_2/atm/70Ma_FV2/cam4_aero/dst_1.9x2.5_MAA.nc'


srf_emis_specifier             = 'CH2O -> /glade/work/crtabor/paleo_setup/paleo_toolkit_2020/cesm1_2/atm/70Ma_FV2/cam4_aero/MAA_mozart/IPCC_emissions_houw_CH2O_1850-2000_1.9x2.5.c090728_MAA_150519.nc',
      'CO   -> /glade/work/crtabor/paleo_setup/paleo_toolkit_2020/cesm1_2/atm/70Ma_FV2/cam4_aero/MAA_mozart/IPCC_emissions_houw_CO_1850-2000_1.9x2.5.c090728_MAA_150519.nc',
      'NO   -> /glade/work/crtabor/paleo_setup/paleo_toolkit_2020/cesm1_2/atm/70Ma_FV2/cam4_aero/MAA_mozart/IPCC_emissions_houw_NOx_1850-2000_1.9x2.5.c090728_MAA_150519.nc'

!tropopause_climo_file          = '/glade/work/crtabor/paleo_setup/paleo_toolkit_2020/cesm1_2/atm/70Ma_FV2/cam4_aero/MAA_mozart/clim_p_trop_MAA.nc'
depvel_file            = '/glade/work/crtabor/paleo_setup/paleo_toolkit_2020/cesm1_2/atm/70Ma_FV2/cam4_aero/MAA_mozart/depvel_monthly_19x25_MAA.nc'
depvel_lnd_file                = '/glade/work/crtabor/paleo_setup/paleo_toolkit_2020/cesm1_2/lnd/70Ma_FV2/surfdata_96x144_MAA_c211115.nc'

&aerodep_flx_nl
 aerodep_flx_cycle_yr           = 1
 aerodep_flx_datapath           = '/glade/work/crtabor/paleo_setup/paleo_toolkit_2020/cesm1_2/atm/70Ma_FV2/cam4_aero/MAA_BAM_3'
 aerodep_flx_file               = 'MAA_dep_f.nc'
 aerodep_flx_specifier          = 'BCDEPWET', 'BCPHODRY', 'BCPHIDRY', 'OCDEPWET', 'OCPHODRY', 'OCPHIDRY', 'DSTX01DD', 'DSTX02DD', 'DSTX03DD',
         'DSTX04DD', 'DSTX01WD', 'DSTX02WD', 'DSTX03WD', 'DSTX04WD'
 aerodep_flx_type               = 'CYCLICAL'

&prescribed_ozone_nl
!prescribed_ozone_datapath      = '/glade/work/crtabor/paleo_setup/paleo_toolkit_2020/cesm1_2/atm/70Ma_FV2/cam4_aero/MAA_mozart'
!prescribed_ozone_file          = 'ozone_1.9x2.5_L26_1850clim_c091112_MAA.nc'

&prescribed_aero_nl
 prescribed_aero_cycle_yr               = 1
 prescribed_aero_datapath               = '/glade/work/crtabor/paleo_setup/paleo_toolkit_2020/cesm1_2/atm/70Ma_FV2/cam4_aero/MAA_BAM_3'
 prescribed_aero_file           = 'MAA1.2.0_CAM4BAM_POP2_CLM4_RTM_CICE4_SGLC_f19_g16_f_r.cam.h0.aero_all.nc'
 prescribed_aero_specifier              = 'sulf:SO4', 'bcar1:CB1', 'bcar2:CB2', 'ocar1:OC1', 'ocar2:OC2', 'sslt1:SSLT01', 'sslt2:SSLT02',
         'sslt3:SSLT03', 'sslt4:SSLT04', 'dust1:DST01', 'dust2:DST02', 'dust3:DST03', 'dust4:DST04'
 prescribed_aero_type           = 'CYCLICAL'
 
&prescribed_strataero_nl
 prescribed_strataero_cycle_yr          = 1849
 prescribed_strataero_datapath          = '/glade/work/crtabor/paleo_setup/paleo_toolkit_2020/cesm1_2/atm/70Ma_FV2/cam4_aero/MAA_mozart'
 prescribed_strataero_file              = 'CESM_1849_2100_sad_V2_MAA.nc'
 prescribed_strataero_type              = 'CYCLICAL'
 prescribed_strataero_use_chemtrop      = .false.

tgcm_ubc_file          = '/glade/work/crtabor/paleo_setup/paleo_toolkit_2020/cesm1_2/atm/70Ma_FV2/cam4_aero/MAA_mozart/tgcm_ubc_1850_MAA.nc'
sulf_file              = '/glade/work/crtabor/paleo_setup/paleo_toolkit_2020/cesm1_2/atm/70Ma_FV2/cam4_aero/MAA_mozart/sulfate.ar5_camchem_c130304_MAA.nc'
season_wes_file                = '/glade/work/crtabor/paleo_setup/paleo_toolkit_2020/cesm1_2/atm/70Ma_FV2/cam4_aero/MAA_mozart/season_wes_MAA_150519.nc'
clim_soilw_file                = '/glade/work/crtabor/paleo_setup/paleo_toolkit_2020/cesm1_2/atm/70Ma_FV2/cam4_aero/MAA_mozart/clim_soilw_MAA_150519.nc'

 ! TUV for photolysis
 radxfr_wavelength_grid_file    = 'wavelength_grid_test.nc'
 radxfr_input_data_root         = '/glade/work/bardeenc/ccsm/cam_cesm2_1_rel_41-photo/src/chemistry/photolysis/inputs/'
 radxfr_has_aer_ra_feedback     = .true.
 radxfr_do_tuv_photo            = .true.
 radxfr_do_tuv_cloud            = .false.
 radxfr_do_sfc_export           = .false.

  ! Changes for stability
 trop_cloud_top_press           = 1.D-4

 irad_always                    = 0
 iradlw                         = 1
 iradsw                         = 1

 fv_div24del2flag               = 42

 state_debug_checks             = .true.

 fv_nsplit                      = 128
 fv_nspltrac                    = 16
 fv_nspltvrm                    = 16
 fv_substep_uv                  = .true.
 fv_substep_t                   = .true.

 dadadj_nlvdry                  = 42
 dadadj_niter                   = 200
 dadadj_mixall                  = .true.

  radheat_limit_dt               = .true.
  dtk_limit                      = 0.25

 ! Turn off nudged QBO
 qbo_use_forcing                = .false.
 qbo_forcing_file               = ' '
 
 
&cam_history_nl
mfilt          = 1,365,30,120,240
nhtfrq         = 0,-24,-24,-6,-3

fincl1         = 'AOA1', 'AOA2', 'BR', 'BRCL', 'BRO', 'BRONO2', 'CCL4', 'CF2CLBR', 'CF3BR', 'CFC11',
         'CFC113', 'CFC12', 'CH2O', 'CH3BR', 'CH3CCL3', 'CH3CL', 'CH3O2', 'CH3OOH', 'CH4', 'CL',
         'CL2', 'CL2O2', 'CLDHGH', 'CLDLOW', 'CLDMED', 'CLDTOT', 'CLO', 'CLONO2', 'CLOUD', 'CO',
         'CO2', 'DTCOND', 'DTV', 'DUV', 'DVV', 'FLNS', 'FLNSC', 'FLNT', 'FLNTC',
         'FSDS', 'FSNS', 'FSNSC', 'FSNT', 'FSNTC', 'H', 'H2', 'H2O', 'H2O2', 'HBR',
         'HCFC22', 'HCL', 'HNO3', 'HO2', 'HO2NO2', 'HOBR', 'HOCL', 'HORZ', 'LANDFRAC', 'LHFLX',
         'N', 'N2O', 'N2O5', 'NO', 'NO2', 'NO3', 'O', 'O1D', 'O2', 'O3',
         'OCLO', 'OCNFRAC', 'OH', 'OMEGA', 'PHIS', 'PRECC', 'PRECL', 'PS', 'Q', 'QFLX',
         'QPERT', 'QRL', 'QRLNLTE', 'QRS', 'RELHUM', 'SHFLX', 'SOLIN', 'SWCF', 'QCP', 'QTHERMAL',
         'QRL_TOT', 'QRS_TOT', 'QJOULE', 'PSL', 'HNO3_STS', 'HNO3_NAT', 'HNO3_GAS', 'NO_Aircraft', 'NO_Lightning', 'QNO',
         'QRS_AUR', 'QRS_CO2NIR', 'QRS_EUV', 'SAD_ICE', 'SAD_LNAT', 'SAD_SULFC', 'T', 'TREFHT', 'TTGW', 'U',
         'UTGWORO', 'UTGWSPEC', 'V', 'VERT', 'VTGWORO', 'VTGWSPEC', 'Z3', 'O2_1S', 'O2_1D', 'NOX',
         'NOY', 'CLOX', 'CLOY', 'BROX', 'BROY', 'TCLY', 'TOTH', 'QJOULE',
         'UIONTEND', 'VIONTEND', 'DTCORE', 'T_24_COS', 'T_24_SIN', 'T_12_COS', 'T_12_SIN', 'OMEGA_24_COS', 'OMEGA_24_SIN', 'OMEGA_12_COS',
         'OMEGA_12_SIN', 'U_24_COS', 'U_24_SIN', 'U_12_COS', 'U_12_SIN', 'V_24_COS', 'V_24_SIN', 'V_12_COS', 'V_12_SIN', 'PS_24_COS',
         'PS_24_SIN', 'PS_12_COS', 'PS_12_SIN', 'CLDLIQ', 'CLDICE', 'CONCLD', 'FRONTGF:I', 'BUTGWSPEC', 'BTAUE', 'BTAUW',
         'BTAUN', 'BTAUS', 'TAUE', 'TAUW', 'TAUN', 'TAUS', 'TAUGWX', 'TAUGWY', 'TAUX', 'TAUY',
         'SNOWHLND', 'SNOWHICE', 'ICEFRAC', 'FSDSC', 'SFNO', 'SFCO', 'SFCH2O', 'CFC11STAR'
 fincl2         = 'PS', 'Z3', 'T', 'U', 'V', 'FLNT', 'PSL', 'OMEGA', 'FSDS', 'FSDSC', 'CLOUD',
         'CONCLD', 'SNOWHLND', 'SNOWHICE', 'CH3CL', 'CFC11', 'CFC12', 'CFC113', 'HCFC22', 'CCL4', 'CH3CCL3', 'CH3BR',
         'CF3BR', 'CF2CLBR', 'CO', 'CO2', 'CH2O', 'CH3OOH', 'CH4', 'O3', 'O', 'O1D', 'N',
         'NO', 'NO2', 'NO3', 'N2O5', 'HNO3', 'HO2NO2', 'NOX', 'NOY', 'N2O', 'H', 'H2',
         'OH', 'HO2', 'H2O2', 'H2O', 'CL', 'CL2', 'CLO', 'OCLO', 'CL2O2', 'CLONO2', 'HOCL',
         'HCL', 'CLOX', 'CLOY', 'BR', 'BRO', 'HOBR', 'HBR', 'BRCL', 'BRONO2', 'BROX', 'BROY',
         'TCLY', 'jo2_a', 'jo2_b', 'jo3_a', 'jo3_b', 'jhocl', 'jno3_b', 'jcl2o2', 'SAD_SULFC', 'SAD_LNAT', 'SAD_ICE',
         'AOA1', 'AOA2', 'O2', 'CLDLIQ', 'CLDICE', 'ASDIR', 'TH','MSKtem'
 fincl3         = 'PS:B', 'T:B', 'Z3:B', 'U:B', 'V:B', 'CO:B', 'CO2:B', 'H2:B', 'O:B', 'O2:B',
         'O3:B', 'H:B', 'OH:B', 'HO2:B', 'H2O:B', 'N:B', 'NO:B', 'NO2:B', 'O1D:B', 'O2_1S:B',
         'O2_1D:B', 'N2D:B', 'Np:B', 'N2p:B', 'Op:B', 'O2p:B', 'NOp:B', 'e:B', 'QRL_TOT:B', 'QRS_TOT:B',
         'QJOULE:B', 'jno3_a:B', 'jno3_b:B', 'jcl2o2:B', 'CL2O2:B', 'CLO:B', 'BRO:B', 'NO3:B', 'DTCORE:B', 'DTV:B',
         'TTGW:B', 'OMEGA:B'
 fincl4         = 'PS', 'PSL', 'U', 'V', 'T', 'Z3', 'PHIS','FRONTGF:I', 'OMEGA'
 fincl8         = 'PS', 'PSL', 'U', 'V', 'T', 'Z3', 'PHIS'

 
 
 
 
